  
       XFOIL         Version 6.99
  
 Calculated polar for: NACA 0014                                       
  
 1 1 Reynolds number fixed          Mach number fixed         
  
 xtrf =   1.000 (top)        1.000 (bottom)  
 Mach =   0.000     Re =     0.189 e 6     Ncrit =   9.000
  
   alpha    CL        CD       CDp       CM     Top_Xtr  Bot_Xtr
  ------ -------- --------- --------- -------- -------- --------
   8.000   0.8717   0.01977   0.01157   0.0038   0.1228   1.0000
