  
       XFOIL         Version 6.99
  
 Calculated polar for: NACA 0012                                       
  
 1 1 Reynolds number fixed          Mach number fixed         
  
 xtrf =   1.000 (top)        1.000 (bottom)  
 Mach =   0.000     Re =    18.164 e 6     Ncrit =   9.000
  
   alpha    CL        CD       CDp       CM     Top_Xtr  Bot_Xtr
  ------ -------- --------- --------- -------- -------- --------
   0.000   0.0001   0.00505   0.00065  -0.0000   0.2725   0.2708
   0.500   0.0572   0.00508   0.00067  -0.0002   0.2343   0.3053
   1.000   0.1145   0.00511   0.00069  -0.0004   0.2038   0.3398
   1.500   0.1718   0.00517   0.00074  -0.0006   0.1723   0.3741
   2.000   0.2290   0.00525   0.00080  -0.0008   0.1430   0.4067
   2.500   0.2862   0.00532   0.00088  -0.0010   0.1198   0.4431
   3.000   0.3433   0.00542   0.00098  -0.0012   0.0958   0.4788
   3.500   0.4002   0.00553   0.00110  -0.0013   0.0776   0.5166
   4.000   0.4572   0.00565   0.00122  -0.0015   0.0624   0.5515
   4.500   0.5140   0.00577   0.00137  -0.0016   0.0518   0.5888
   5.000   0.5706   0.00592   0.00154  -0.0017   0.0418   0.6247
   5.500   0.6272   0.00605   0.00171  -0.0018   0.0354   0.6650
   6.000   0.6836   0.00620   0.00190  -0.0018   0.0295   0.7040
   6.500   0.7398   0.00636   0.00211  -0.0019   0.0261   0.7425
   7.000   0.7958   0.00652   0.00232  -0.0019   0.0227   0.7829
   7.500   0.8515   0.00671   0.00256  -0.0019   0.0199   0.8212
   8.000   0.9068   0.00694   0.00283  -0.0018   0.0176   0.8564
   8.500   0.9620   0.00715   0.00310  -0.0017   0.0162   0.8901
   9.000   1.0163   0.00743   0.00342  -0.0014   0.0140   0.9204
   9.500   1.0705   0.00769   0.00371  -0.0011   0.0134   0.9435
  10.000   1.1232   0.00802   0.00407  -0.0006   0.0122   0.9647
  10.500   1.1752   0.00836   0.00442   0.0001   0.0111   0.9802
  11.000   1.2275   0.00872   0.00477   0.0007   0.0107   0.9912
  11.500   1.2833   0.00919   0.00521   0.0004   0.0097   0.9961
  12.000   1.3405   0.00966   0.00567  -0.0003   0.0088   0.9992
  12.500   1.3939   0.01009   0.00609  -0.0002   0.0087   1.0000
  13.000   1.4440   0.01057   0.00656   0.0006   0.0084   1.0000
  13.500   1.4932   0.01114   0.00712   0.0015   0.0078   1.0000
  14.000   1.5417   0.01174   0.00771   0.0024   0.0071   1.0000
  14.500   1.5900   0.01232   0.00829   0.0033   0.0068   1.0000
  15.000   1.6376   0.01290   0.00888   0.0043   0.0067   1.0000
  15.500   1.6838   0.01353   0.00952   0.0055   0.0066   1.0000
  16.000   1.7279   0.01426   0.01025   0.0069   0.0064   1.0000
  16.500   1.7692   0.01510   0.01110   0.0087   0.0060   1.0000
  17.000   1.8079   0.01600   0.01202   0.0108   0.0056   1.0000
  17.500   1.8417   0.01695   0.01299   0.0136   0.0052   1.0000
  18.000   1.8669   0.01798   0.01406   0.0178   0.0051   1.0000
  18.500   1.8920   0.01916   0.01528   0.0214   0.0051   1.0000
  19.000   1.9150   0.02061   0.01679   0.0247   0.0050   1.0000
  19.500   1.9353   0.02240   0.01863   0.0275   0.0050   1.0000
  20.000   1.9525   0.02464   0.02094   0.0299   0.0050   1.0000
  20.500   1.9659   0.02746   0.02382   0.0317   0.0049   1.0000
  21.000   1.9748   0.03102   0.02747   0.0327   0.0049   1.0000
  21.500   1.9763   0.03564   0.03219   0.0329   0.0048   1.0000
  22.000   1.9701   0.04153   0.03818   0.0320   0.0047   1.0000
  22.500   1.9536   0.04911   0.04590   0.0297   0.0046   1.0000
  23.000   1.9221   0.05907   0.05602   0.0259   0.0046   1.0000
  23.500   1.8731   0.07192   0.06906   0.0202   0.0045   1.0000
  24.000   1.8052   0.08797   0.08534   0.0125   0.0045   1.0000
  24.500   1.7065   0.10946   0.10711   0.0011   0.0045   1.0000
  25.000   1.5942   0.13441   0.13237  -0.0135   0.0046   1.0000
  25.500   1.4741   0.16303   0.16132  -0.0326   0.0046   1.0000
  26.000   1.3703   0.19166   0.19025  -0.0537   0.0047   1.0000
  26.500   1.2839   0.21993   0.21879  -0.0754   0.0046   1.0000
  27.000   1.2164   0.24722   0.24630  -0.0963   0.0043   1.0000
  27.500   1.1844   0.26652   0.26573  -0.1109   0.0039   1.0000
  28.000   1.1658   0.28311   0.28242  -0.1233   0.0036   1.0000
  28.500   1.1757   0.28923   0.28856  -0.1290   0.0036   1.0000
  29.000   1.1763   0.29920   0.29858  -0.1371   0.0035   1.0000
  29.500   1.1866   0.30505   0.30445  -0.1428   0.0035   1.0000
  30.000   1.1782   0.32003   0.31949  -0.1535   0.0030   1.0000
  30.500   1.1875   0.32636   0.32582  -0.1596   0.0027   1.0000
  31.000   1.1979   0.33194   0.33141  -0.1653   0.0025   1.0000
  31.500   1.2015   0.34143   0.34094  -0.1730   0.0024   1.0000
  32.000   1.2122   0.34635   0.34587  -0.1786   0.0023   1.0000
  32.500   1.2155   0.35632   0.35588  -0.1864   0.0021   1.0000
  33.000   1.2259   0.36104   0.36060  -0.1920   0.0020   1.0000
  33.500   1.2285   0.37252   0.37211  -0.2002   0.0014   1.0000
  34.500   1.2407   0.39128   0.39090  -0.2145   0.0010   1.0000
  35.000   1.2501   0.39554   0.39517  -0.2202   0.0009   1.0000
  36.000   1.2660   0.41044   0.41008  -0.2331   0.0005   1.0000
  36.500   1.2744   0.41403   0.41367  -0.2387   0.0005   1.0000
  37.000   1.2823   0.41821   0.41786  -0.2445   0.0004   1.0000
  37.500   1.2899   0.42172   0.42137  -0.2501   0.0004   1.0000
  40.000   0.7291   0.41648   0.41624  -0.1408   0.0001   1.0000
  40.500   0.7288   0.42087   0.42063  -0.1435   0.0001   1.0000
  41.000   0.7284   0.42459   0.42435  -0.1463   0.0002   1.0000
  41.500   0.7277   0.42805   0.42781  -0.1492   0.0002   1.0000
  42.000   0.7268   0.43131   0.43108  -0.1520   0.0002   1.0000
  42.500   0.7257   0.43442   0.43420  -0.1548   0.0002   1.0000
  43.000   0.7239   0.43988   0.43966  -0.1572   0.0003   1.0000
