  
       XFOIL         Version 6.99
  
 Calculated polar for: S1223                                           
  
 1 1 Reynolds number fixed          Mach number fixed         
  
 xtrf =   1.000 (top)        1.000 (bottom)  
 Mach =   0.000     Re =     0.189 e 6     Ncrit =   9.000
  
   alpha    CL        CD       CDp       CM     Top_Xtr  Bot_Xtr
  ------ -------- --------- --------- -------- -------- --------
   8.000   2.0201   0.03245   0.02504  -0.2596   0.3721   1.0000
