  
       XFOIL         Version 6.99
  
 Calculated polar for: NACA 23012                                      
  
 1 1 Reynolds number fixed          Mach number fixed         
  
 xtrf =   1.000 (top)        1.000 (bottom)  
 Mach =   0.000     Re =    18.164 e 6     Ncrit =   9.000
  
   alpha    CL        CD       CDp       CM     Top_Xtr  Bot_Xtr
  ------ -------- --------- --------- -------- -------- --------
   0.000   0.1351   0.00595   0.00085  -0.0111   0.2024   0.0582
   0.500   0.1930   0.00590   0.00084  -0.0114   0.1982   0.0823
   1.000   0.2489   0.00552   0.00082  -0.0114   0.1874   0.2551
   1.500   0.3057   0.00529   0.00082  -0.0116   0.1840   0.3602
   2.000   0.3626   0.00517   0.00085  -0.0118   0.1737   0.4438
   2.500   0.4199   0.00504   0.00089  -0.0120   0.1710   0.5229
   3.000   0.4765   0.00493   0.00096  -0.0122   0.1618   0.6226
   3.500   0.5343   0.00494   0.00104  -0.0126   0.1579   0.6589
   4.000   0.5918   0.00502   0.00113  -0.0129   0.1502   0.6901
   4.500   0.6494   0.00507   0.00123  -0.0132   0.1447   0.7223
   5.000   0.7065   0.00517   0.00135  -0.0135   0.1382   0.7552
   5.500   0.7637   0.00524   0.00147  -0.0138   0.1316   0.7892
   6.000   0.8203   0.00538   0.00163  -0.0140   0.1227   0.8223
   6.500   0.8767   0.00552   0.00180  -0.0142   0.1154   0.8547
   7.000   0.9326   0.00570   0.00199  -0.0143   0.1054   0.8854
   7.500   0.9879   0.00594   0.00222  -0.0144   0.0944   0.9116
   8.000   1.0424   0.00621   0.00249  -0.0143   0.0831   0.9364
   8.500   1.0955   0.00662   0.00284  -0.0140   0.0685   0.9552
   9.000   1.1482   0.00701   0.00319  -0.0136   0.0562   0.9706
   9.500   1.1993   0.00747   0.00358  -0.0129   0.0458   0.9841
  10.000   1.2503   0.00798   0.00402  -0.0123   0.0348   0.9938
  10.500   1.3078   0.00853   0.00450  -0.0133   0.0272   0.9974
  11.000   1.3642   0.00908   0.00499  -0.0140   0.0209   0.9997
  11.500   1.4151   0.00959   0.00546  -0.0136   0.0173   1.0000
  12.000   1.4649   0.01013   0.00596  -0.0130   0.0144   1.0000
  12.500   1.5143   0.01071   0.00651  -0.0123   0.0118   1.0000
  13.000   1.5635   0.01127   0.00705  -0.0118   0.0106   1.0000
  13.500   1.6118   0.01185   0.00763  -0.0111   0.0093   1.0000
  14.000   1.6587   0.01251   0.00827  -0.0102   0.0083   1.0000
  14.500   1.7047   0.01317   0.00893  -0.0093   0.0073   1.0000
  15.000   1.7488   0.01390   0.00966  -0.0081   0.0066   1.0000
  15.500   1.7907   0.01471   0.01046  -0.0066   0.0057   1.0000
  16.000   1.8315   0.01548   0.01124  -0.0050   0.0055   1.0000
  16.500   1.8678   0.01637   0.01215  -0.0028   0.0052   1.0000
  17.000   1.8921   0.01743   0.01324   0.0014   0.0048   1.0000
  17.500   1.9149   0.01869   0.01454   0.0052   0.0042   1.0000
  18.000   1.9374   0.02015   0.01604   0.0084   0.0041   1.0000
  18.500   1.9567   0.02199   0.01793   0.0112   0.0040   1.0000
  19.000   1.9710   0.02443   0.02044   0.0137   0.0038   1.0000
  19.500   1.9791   0.02773   0.02381   0.0155   0.0036   1.0000
  20.000   1.9814   0.03205   0.02821   0.0162   0.0033   1.0000
  20.500   1.9761   0.03763   0.03390   0.0159   0.0031   1.0000
  21.000   1.9599   0.04499   0.04140   0.0143   0.0030   1.0000
  21.500   1.9294   0.05474   0.05131   0.0111   0.0029   1.0000
  22.000   1.8728   0.06854   0.06533   0.0057   0.0029   1.0000
  22.500   1.7803   0.08797   0.08505  -0.0024   0.0029   1.0000
  23.000   1.6631   0.11210   0.10950  -0.0135   0.0030   1.0000
  23.500   1.5712   0.13348   0.13114  -0.0246   0.0031   1.0000
  24.000   1.5088   0.15105   0.14890  -0.0349   0.0031   1.0000
  24.500   1.4592   0.16713   0.16515  -0.0451   0.0031   1.0000
  25.000   1.4326   0.17953   0.17766  -0.0537   0.0030   1.0000
  25.500   1.4110   0.19112   0.18935  -0.0621   0.0029   1.0000
  26.000   1.3938   0.20219   0.20052  -0.0705   0.0029   1.0000
  26.500   1.3949   0.20941   0.20778  -0.0764   0.0029   1.0000
  27.000   1.3824   0.21988   0.21835  -0.0849   0.0028   1.0000
  27.500   1.3704   0.23048   0.22903  -0.0936   0.0028   1.0000
  28.500   1.3624   0.24793   0.24661  -0.1090   0.0026   1.0000
  29.000   1.3513   0.25865   0.25740  -0.1183   0.0024   1.0000
  29.500   1.3419   0.26931   0.26814  -0.1276   0.0022   1.0000
  30.500   1.3386   0.28648   0.28542  -0.1434   0.0019   1.0000
  31.000   1.3339   0.29624   0.29526  -0.1522   0.0019   1.0000
  31.500   1.3302   0.30589   0.30497  -0.1609   0.0019   1.0000
  32.000   1.3360   0.31205   0.31117  -0.1674   0.0018   1.0000
  32.500   1.3333   0.32146   0.32064  -0.1760   0.0018   1.0000
  33.000   1.3300   0.33134   0.33057  -0.1849   0.0017   1.0000
  33.500   1.3269   0.34144   0.34072  -0.1938   0.0015   1.0000
  34.000   1.3244   0.35161   0.35094  -0.2027   0.0012   1.0000
  34.500   1.3244   0.36085   0.36024  -0.2109   0.0011   1.0000
  35.000   1.3304   0.36661   0.36603  -0.2175   0.0011   1.0000
  35.500   1.3333   0.37412   0.37357  -0.2249   0.0011   1.0000
  36.000   1.3350   0.38252   0.38202  -0.2327   0.0010   1.0000
  36.500   1.3410   0.38764   0.38714  -0.2390   0.0009   1.0000
  37.000   1.3417   0.39701   0.39654  -0.2471   0.0006   1.0000
  37.500   1.3443   0.40513   0.40469  -0.2546   0.0005   1.0000
  38.000   1.3506   0.40926   0.40883  -0.2606   0.0005   1.0000
  38.500   1.3562   0.41344   0.41303  -0.2667   0.0005   1.0000
  39.000   1.3587   0.42078   0.42040  -0.2741   0.0004   1.0000
  39.500   1.3641   0.42376   0.42338  -0.2803   0.0004   1.0000
  40.000   1.3670   0.42995   0.42959  -0.2880   0.0002   1.0000
  40.500   1.3719   0.43209   0.43173  -0.2942   0.0002   1.0000
  41.000   1.3749   0.43916   0.43886  -0.3020   0.0001   1.0000
  41.500   1.3791   0.44050   0.44020  -0.3080   0.0001   1.0000
  42.000   1.3828   0.44556   0.44526  -0.3149   0.0000   1.0000
  42.500   1.3860   0.44744   0.44714  -0.3210   0.0000   1.0000
  45.000   0.7291   0.48018   0.48000  -0.1708   0.0008   1.0000
  45.500   0.7259   0.48272   0.48254  -0.1735   0.0008   1.0000
  46.000   0.7223   0.48525   0.48508  -0.1761   0.0008   1.0000
  46.500   0.7186   0.48889   0.48872  -0.1785   0.0010   1.0000
  47.000   0.7147   0.49151   0.49135  -0.1810   0.0010   1.0000
