  
       XFOIL         Version 6.97
  
 Calculated polar for: P-51D ROOT (BL17.5) AIRFOIL                     
  
 1 1 Reynolds number fixed          Mach number fixed         
  
 xtrf =   1.000 (top)        1.000 (bottom)  
 Mach =   0.000     Re =    16.395 e 6     Ncrit =   9.000
  
   alpha    CL        CD       CDp       CM     Top_Xtr  Bot_Xtr
  ------ -------- --------- --------- -------- -------- --------
 -27.250  -0.8717   0.25459   0.25379   0.0507   0.9988   0.0012
 -27.000  -0.8741   0.24739   0.24654   0.0451   0.9987   0.0012
 -26.750  -0.8671   0.24310   0.24223   0.0408   0.9986   0.0012
 -26.250  -0.8783   0.22814   0.22717   0.0295   0.9983   0.0012
 -26.000  -0.8883   0.22012   0.21910   0.0237   0.9981   0.0012
 -25.750  -0.9056   0.21080   0.20971   0.0173   0.9980   0.0012
 -25.250  -1.1931   0.14497   0.14309  -0.0239   0.9981   0.0012
 -25.000  -1.2727   0.12726   0.12515  -0.0355   0.9980   0.0012
 -24.750  -1.3215   0.11529   0.11302  -0.0433   0.9978   0.0012
 -24.500  -1.3607   0.10525   0.10284  -0.0498   0.9976   0.0012
 -24.250  -1.3858   0.09762   0.09511  -0.0547   0.9974   0.0012
 -24.000  -1.4132   0.08972   0.08710  -0.0598   0.9971   0.0012
 -23.750  -1.4285   0.08381   0.08111  -0.0637   0.9968   0.0012
 -23.500  -1.4404   0.07841   0.07564  -0.0672   0.9964   0.0012
 -23.250  -1.4498   0.07348   0.07065  -0.0704   0.9960   0.0012
 -23.000  -1.4572   0.06899   0.06608  -0.0732   0.9955   0.0012
 -22.750  -1.4628   0.06484   0.06188  -0.0757   0.9948   0.0012
 -22.500  -1.4621   0.06158   0.05857  -0.0777   0.9939   0.0012
 -22.250  -1.4627   0.05812   0.05507  -0.0798   0.9926   0.0012
 -21.750  -1.4497   0.05201   0.04868  -0.0853   0.9264   0.0012
 -21.500  -1.4525   0.04939   0.04597  -0.0857   0.9119   0.0012
 -21.250  -1.4536   0.04683   0.04336  -0.0862   0.9077   0.0012
 -21.000  -1.4508   0.04480   0.04128  -0.0863   0.9024   0.0012
 -20.750  -1.4518   0.04245   0.03887  -0.0865   0.8952   0.0012
 -20.500  -1.4464   0.04070   0.03709  -0.0866   0.8920   0.0012
 -20.250  -1.4455   0.03858   0.03493  -0.0865   0.8906   0.0012
 -20.000  -1.4395   0.03699   0.03331  -0.0864   0.8885   0.0012
 -19.750  -1.4360   0.03525   0.03154  -0.0861   0.8858   0.0012
 -19.500  -1.4313   0.03367   0.02992  -0.0857   0.8829   0.0012
 -19.250  -1.4252   0.03223   0.02845  -0.0852   0.8795   0.0013
 -19.000  -1.4213   0.03067   0.02685  -0.0846   0.8755   0.0013
 -18.750  -1.4138   0.02942   0.02557  -0.0840   0.8722   0.0013
 -18.500  -1.4093   0.02798   0.02410  -0.0833   0.8717   0.0013
 -18.250  -1.4009   0.02684   0.02295  -0.0826   0.8713   0.0013
 -18.000  -1.3954   0.02555   0.02163  -0.0816   0.8708   0.0013
 -17.750  -1.3865   0.02450   0.02057  -0.0808   0.8701   0.0013
 -17.500  -1.3798   0.02335   0.01940  -0.0798   0.8691   0.0014
 -17.250  -1.3710   0.02234   0.01836  -0.0787   0.8675   0.0014
 -17.000  -1.3628   0.02133   0.01733  -0.0776   0.8654   0.0015
 -16.750  -1.3548   0.02034   0.01631  -0.0764   0.8630   0.0016
 -16.500  -1.3458   0.01945   0.01539  -0.0751   0.8600   0.0017
 -16.250  -1.3366   0.01858   0.01451  -0.0738   0.8561   0.0017
 -16.000  -1.3278   0.01774   0.01364  -0.0723   0.8522   0.0018
 -15.750  -1.3191   0.01693   0.01281  -0.0707   0.8509   0.0019
 -15.500  -1.3102   0.01618   0.01204  -0.0689   0.8507   0.0020
 -15.250  -1.3004   0.01549   0.01135  -0.0672   0.8504   0.0021
 -15.000  -1.2905   0.01486   0.01070  -0.0653   0.8500   0.0023
 -14.250  -1.2941   0.01233   0.00813  -0.0540   0.8460   0.0070
 -14.000  -1.2886   0.01191   0.00769  -0.0505   0.8430   0.0078
 -13.750  -1.2859   0.01153   0.00729  -0.0463   0.8384   0.0086
 -13.500  -1.2731   0.01128   0.00702  -0.0438   0.8326   0.0089
 -13.250  -1.2538   0.01102   0.00676  -0.0425   0.8299   0.0091
 -13.000  -1.2333   0.01076   0.00651  -0.0415   0.8292   0.0093
 -12.750  -1.2129   0.01048   0.00623  -0.0404   0.8280   0.0101
 -12.500  -1.1920   0.01019   0.00595  -0.0394   0.8253   0.0107
 -12.250  -1.1698   0.00997   0.00570  -0.0386   0.8145   0.0112
 -12.000  -1.1465   0.00976   0.00549  -0.0380   0.8064   0.0114
 -11.750  -1.1229   0.00961   0.00528  -0.0374   0.7830   0.0115
 -11.500  -1.1001   0.00958   0.00509  -0.0367   0.7120   0.0117
 -11.250  -1.0763   0.00945   0.00489  -0.0362   0.6761   0.0124
 -11.000  -1.0523   0.00929   0.00468  -0.0357   0.6508   0.0130
 -10.750  -1.0277   0.00914   0.00449  -0.0353   0.6291   0.0136
 -10.500  -1.0022   0.00898   0.00431  -0.0350   0.6174   0.0140
 -10.250  -0.9764   0.00885   0.00415  -0.0348   0.6022   0.0142
 -10.000  -0.9502   0.00871   0.00400  -0.0346   0.5945   0.0144
  -9.750  -0.9241   0.00857   0.00384  -0.0344   0.5815   0.0151
  -9.500  -0.8981   0.00838   0.00367  -0.0342   0.5763   0.0162
  -9.250  -0.8715   0.00824   0.00352  -0.0341   0.5704   0.0168
  -9.000  -0.8446   0.00812   0.00338  -0.0341   0.5617   0.0171
  -8.750  -0.8173   0.00800   0.00326  -0.0341   0.5537   0.0172
  -8.500  -0.7899   0.00787   0.00313  -0.0341   0.5516   0.0177
  -8.250  -0.7627   0.00774   0.00300  -0.0341   0.5473   0.0187
  -8.000  -0.7354   0.00762   0.00287  -0.0341   0.5416   0.0195
  -7.750  -0.7078   0.00750   0.00275  -0.0341   0.5352   0.0202
  -7.500  -0.6798   0.00739   0.00265  -0.0342   0.5297   0.0205
  -7.250  -0.6518   0.00728   0.00254  -0.0343   0.5290   0.0214
  -7.000  -0.6239   0.00714   0.00242  -0.0344   0.5279   0.0229
  -6.750  -0.5958   0.00703   0.00232  -0.0345   0.5257   0.0238
  -6.500  -0.5675   0.00694   0.00223  -0.0347   0.5223   0.0246
  -6.250  -0.5395   0.00684   0.00213  -0.0348   0.5174   0.0265
  -6.000  -0.5112   0.00675   0.00204  -0.0349   0.5107   0.0277
  -5.750  -0.4828   0.00665   0.00195  -0.0351   0.5060   0.0300
  -5.500  -0.4542   0.00654   0.00187  -0.0353   0.5053   0.0318
  -5.250  -0.4257   0.00644   0.00178  -0.0355   0.5043   0.0350
  -5.000  -0.3968   0.00636   0.00171  -0.0357   0.5024   0.0362
  -4.750  -0.3682   0.00628   0.00164  -0.0359   0.4989   0.0390
  -4.500  -0.3394   0.00622   0.00158  -0.0361   0.4945   0.0407
  -4.250  -0.3105   0.00615   0.00152  -0.0363   0.4897   0.0428
  -4.000  -0.2817   0.00608   0.00146  -0.0366   0.4849   0.0458
  -3.750  -0.2528   0.00598   0.00139  -0.0368   0.4831   0.0508
  -3.500  -0.2236   0.00591   0.00134  -0.0371   0.4824   0.0540
  -3.250  -0.1945   0.00584   0.00128  -0.0374   0.4812   0.0573
  -3.000  -0.1659   0.00574   0.00122  -0.0376   0.4776   0.0680
  -2.750  -0.1376   0.00563   0.00115  -0.0377   0.4718   0.0861
  -2.500  -0.1091   0.00551   0.00108  -0.0379   0.4665   0.1051
  -2.250  -0.0802   0.00541   0.00104  -0.0382   0.4620   0.1208
  -2.000  -0.0513   0.00531   0.00099  -0.0384   0.4609   0.1367
  -1.750  -0.0220   0.00524   0.00095  -0.0387   0.4603   0.1485
  -1.500   0.0073   0.00517   0.00092  -0.0390   0.4595   0.1575
  -1.250   0.0364   0.00508   0.00089  -0.0393   0.4580   0.1757
  -1.000   0.0648   0.00495   0.00084  -0.0395   0.4541   0.2108
  -0.750   0.0919   0.00467   0.00075  -0.0395   0.4477   0.2876
  -0.500   0.1207   0.00458   0.00073  -0.0398   0.4400   0.3160
  -0.250   0.1496   0.00446   0.00069  -0.0401   0.4390   0.3463
   0.000   0.1781   0.00430   0.00065  -0.0403   0.4371   0.3904
   0.250   0.2063   0.00418   0.00062  -0.0405   0.4315   0.4315
   0.500   0.2345   0.00409   0.00061  -0.0406   0.4206   0.4693
   0.750   0.2637   0.00404   0.00060  -0.0409   0.4172   0.4895
   1.000   0.2919   0.00410   0.00064  -0.0411   0.3996   0.5055
   1.250   0.3196   0.00424   0.00070  -0.0411   0.3716   0.5127
   1.500   0.3428   0.00477   0.00091  -0.0404   0.2772   0.5196
   1.750   0.3710   0.00486   0.00097  -0.0405   0.2587   0.5267
   2.000   0.3997   0.00494   0.00101  -0.0408   0.2492   0.5314
   2.250   0.4284   0.00503   0.00106  -0.0410   0.2355   0.5328
   2.500   0.4565   0.00518   0.00113  -0.0411   0.2154   0.5343
   2.750   0.4802   0.00563   0.00134  -0.0405   0.1438   0.5446
   3.000   0.5081   0.00573   0.00141  -0.0406   0.1305   0.5522
   3.250   0.5365   0.00584   0.00148  -0.0407   0.1211   0.5538
   3.500   0.5644   0.00597   0.00156  -0.0408   0.1094   0.5542
   3.750   0.5923   0.00610   0.00165  -0.0409   0.0996   0.5562
   4.000   0.6199   0.00624   0.00174  -0.0409   0.0884   0.5612
   4.250   0.6461   0.00646   0.00188  -0.0407   0.0690   0.5656
   4.500   0.6723   0.00668   0.00203  -0.0404   0.0516   0.5689
   4.750   0.6990   0.00686   0.00216  -0.0403   0.0412   0.5713
   5.000   0.7255   0.00704   0.00229  -0.0401   0.0318   0.5731
   5.250   0.7521   0.00721   0.00242  -0.0400   0.0252   0.5743
   5.500   0.7788   0.00737   0.00255  -0.0398   0.0202   0.5751
   5.750   0.8048   0.00757   0.00270  -0.0396   0.0146   0.5756
   6.000   0.8277   0.00794   0.00302  -0.0387   0.0005   0.5759
   6.250   0.8542   0.00808   0.00315  -0.0386   0.0005   0.5776
   6.500   0.8804   0.00822   0.00328  -0.0383   0.0005   0.5809
   6.750   0.9063   0.00836   0.00342  -0.0381   0.0005   0.5842
   7.000   0.9320   0.00851   0.00356  -0.0378   0.0005   0.5871
   7.250   0.9574   0.00867   0.00371  -0.0374   0.0005   0.5896
   7.500   0.9825   0.00883   0.00387  -0.0370   0.0005   0.5918
   7.750   1.0072   0.00899   0.00403  -0.0366   0.0005   0.5938
   8.000   1.0316   0.00917   0.00419  -0.0360   0.0005   0.5953
   8.250   1.0556   0.00935   0.00436  -0.0355   0.0005   0.5964
   8.500   1.0791   0.00953   0.00454  -0.0348   0.0005   0.5972
   8.750   1.1022   0.00972   0.00473  -0.0340   0.0005   0.5977
   9.000   1.1246   0.00992   0.00491  -0.0332   0.0005   0.5981
   9.250   1.1464   0.01012   0.00511  -0.0322   0.0005   0.5983
   9.500   1.1673   0.01033   0.00531  -0.0310   0.0005   0.6006
   9.750   1.1844   0.01051   0.00550  -0.0291   0.0005   0.6041
  10.000   1.1967   0.01069   0.00569  -0.0262   0.0005   0.6078
  10.250   1.2100   0.01093   0.00594  -0.0236   0.0005   0.6110
  10.500   1.2237   0.01119   0.00621  -0.0212   0.0005   0.6137
  10.750   1.2375   0.01148   0.00650  -0.0189   0.0005   0.6162
  11.000   1.2519   0.01178   0.00681  -0.0168   0.0005   0.6181
  11.250   1.2663   0.01209   0.00713  -0.0147   0.0005   0.6195
  11.500   1.2807   0.01243   0.00747  -0.0127   0.0005   0.6203
  11.750   1.2954   0.01278   0.00783  -0.0108   0.0005   0.6209
  12.000   1.3098   0.01316   0.00821  -0.0088   0.0005   0.6214
  12.250   1.3236   0.01355   0.00862  -0.0069   0.0005   0.6254
  12.500   1.3386   0.01395   0.00902  -0.0052   0.0005   0.6305
  12.750   1.3509   0.01441   0.00951  -0.0031   0.0005   0.6349
  13.000   1.3649   0.01485   0.00997  -0.0014   0.0005   0.6387
  13.250   1.3791   0.01531   0.01044   0.0003   0.0005   0.6416
  13.500   1.3902   0.01587   0.01102   0.0024   0.0005   0.6433
  13.750   1.4038   0.01640   0.01155   0.0040   0.0005   0.6442
  14.000   1.4161   0.01697   0.01214   0.0058   0.0005   0.6489
  14.250   1.4268   0.01761   0.01280   0.0076   0.0005   0.6549
  14.500   1.4397   0.01821   0.01343   0.0092   0.0005   0.6599
  14.750   1.4491   0.01896   0.01420   0.0111   0.0005   0.6639
  15.000   1.4605   0.01968   0.01493   0.0126   0.0005   0.6664
  15.250   1.4702   0.02048   0.01576   0.0143   0.0005   0.6708
  15.500   1.4799   0.02132   0.01663   0.0159   0.0005   0.6798
  15.750   1.4890   0.02223   0.01757   0.0174   0.0005   0.6869
  16.000   1.4980   0.02319   0.01857   0.0188   0.0005   0.6960
  16.250   1.5057   0.02424   0.01968   0.0203   0.0005   0.7107
  16.500   1.5143   0.02526   0.02077   0.0216   0.0005   0.7386
  16.750   1.5170   0.02629   0.02210   0.0237   0.0005   0.8671
  17.000   1.5376   0.02733   0.02345   0.0224   0.0005   0.9935
  17.250   1.5488   0.02885   0.02500   0.0223   0.0005   0.9950
  17.500   1.5609   0.03029   0.02647   0.0222   0.0005   0.9960
  17.750   1.5722   0.03190   0.02811   0.0219   0.0005   0.9967
  18.000   1.5833   0.03367   0.02990   0.0213   0.0005   0.9971
  18.250   1.5972   0.03538   0.03164   0.0204   0.0005   0.9976
  18.500   1.6096   0.03748   0.03377   0.0190   0.0005   0.9980
  18.750   1.6269   0.03941   0.03573   0.0170   0.0005   0.9984
  19.000   1.6411   0.04188   0.03823   0.0146   0.0005   0.9988
  19.250   1.6586   0.04406   0.04044   0.0122   0.0005   0.9991
  19.500   1.6696   0.04686   0.04327   0.0099   0.0006   0.9994
  19.750   1.6830   0.04921   0.04566   0.0080   0.0006   0.9996
  20.000   1.6884   0.05226   0.04875   0.0062   0.0006   0.9997
  20.250   1.6985   0.05480   0.05133   0.0045   0.0006   0.9999
  20.500   1.7016   0.05824   0.05481   0.0025   0.0006   1.0000
  20.750   1.7048   0.06082   0.05743   0.0020   0.0006   1.0000
  21.000   1.6987   0.06431   0.06098   0.0014   0.0006   1.0000
  21.250   1.6989   0.06701   0.06372   0.0011   0.0006   1.0000
  21.500   1.6911   0.07085   0.06762   0.0004   0.0006   1.0000
  21.750   1.6902   0.07379   0.07060  -0.0001   0.0006   1.0000
  22.000   1.6805   0.07796   0.07483  -0.0012   0.0006   1.0000
  22.250   1.6770   0.08123   0.07815  -0.0019   0.0006   1.0000
  22.500   1.6661   0.08567   0.08265  -0.0031   0.0006   1.0000
  22.750   1.6549   0.09021   0.08726  -0.0045   0.0006   1.0000
  23.000   1.6488   0.09404   0.09114  -0.0056   0.0006   1.0000
  23.250   1.6337   0.09916   0.09633  -0.0073   0.0006   1.0000
  23.500   1.6193   0.10432   0.10156  -0.0092   0.0006   1.0000
  23.750   1.6102   0.10872   0.10602  -0.0109   0.0006   1.0000
  24.000   1.5924   0.11456   0.11194  -0.0133   0.0006   1.0000
  24.250   1.5729   0.12064   0.11810  -0.0160   0.0006   1.0000
  24.500   1.5525   0.12704   0.12459  -0.0191   0.0006   1.0000
  24.750   1.5227   0.13520   0.13286  -0.0233   0.0006   1.0000
  25.000   1.4982   0.14260   0.14035  -0.0274   0.0006   1.0000
  25.250   1.4723   0.15022   0.14807  -0.0318   0.0006   1.0000
  25.500   1.4464   0.15811   0.15605  -0.0366   0.0006   1.0000
  25.750   1.4216   0.16606   0.16409  -0.0417   0.0006   1.0000
  26.000   1.3970   0.17420   0.17233  -0.0472   0.0006   1.0000
  26.250   1.3624   0.18455   0.18280  -0.0544   0.0006   1.0000
  26.500   1.3375   0.19326   0.19161  -0.0606   0.0006   1.0000
  26.750   1.3139   0.20208   0.20052  -0.0671   0.0006   1.0000
  27.000   1.2831   0.21293   0.21148  -0.0752   0.0006   1.0000
  27.250   1.2639   0.22140   0.22004  -0.0817   0.0006   1.0000
  27.500   1.2459   0.22983   0.22855  -0.0881   0.0006   1.0000
  28.000   1.1927   0.25244   0.25138  -0.1048   0.0006   1.0000
  28.250   1.1679   0.26418   0.26322  -0.1132   0.0006   1.0000
  28.500   1.1488   0.27500   0.27413  -0.1207   0.0006   1.0000
  28.750   1.1405   0.28257   0.28175  -0.1260   0.0006   1.0000
  29.000   1.1349   0.28942   0.28864  -0.1309   0.0006   1.0000
  29.250   1.1360   0.29372   0.29296  -0.1343   0.0006   1.0000
  29.500   1.1340   0.29937   0.29864  -0.1384   0.0006   1.0000
  29.750   1.1374   0.30271   0.30199  -0.1412   0.0006   1.0000
  30.000   1.1403   0.30629   0.30558  -0.1443   0.0006   1.0000
  30.250   1.1398   0.31146   0.31078  -0.1480   0.0006   1.0000
  30.500   1.1442   0.31432   0.31365  -0.1507   0.0006   1.0000
  30.750   1.1486   0.31710   0.31644  -0.1534   0.0006   1.0000
  31.000   1.1530   0.31983   0.31917  -0.1560   0.0007   1.0000
  31.250   1.1574   0.32256   0.32191  -0.1586   0.0007   1.0000
  31.500   1.1612   0.32555   0.32491  -0.1614   0.0007   1.0000
  31.750   1.1617   0.33026   0.32965  -0.1649   0.0007   1.0000
  32.000   1.1662   0.33273   0.33212  -0.1675   0.0007   1.0000
  32.250   1.1708   0.33515   0.33455  -0.1701   0.0007   1.0000
  32.500   1.1754   0.33751   0.33691  -0.1726   0.0007   1.0000
  32.750   1.1799   0.33985   0.33926  -0.1751   0.0007   1.0000
  33.000   1.1843   0.34219   0.34161  -0.1777   0.0007   1.0000
  33.250   1.1885   0.34459   0.34401  -0.1803   0.0007   1.0000
  33.500   1.1924   0.34713   0.34656  -0.1829   0.0007   1.0000
  33.750   1.1918   0.35242   0.35189  -0.1867   0.0007   1.0000
  34.000   1.1957   0.35488   0.35437  -0.1893   0.0007   1.0000
  34.250   1.1995   0.35733   0.35682  -0.1920   0.0008   1.0000
  34.500   1.2030   0.35990   0.35941  -0.1946   0.0008   1.0000
  34.750   1.2052   0.36335   0.36288  -0.1977   0.0008   1.0000
  35.250   1.1948   0.39262   0.39223  -0.2088   0.0008   1.0000
  35.500   1.1990   0.39465   0.39426  -0.2113   0.0008   1.0000
  35.750   1.2031   0.39662   0.39623  -0.2137   0.0007   1.0000
  36.000   1.2070   0.39851   0.39813  -0.2162   0.0007   1.0000
  36.250   1.2109   0.40033   0.39995  -0.2187   0.0006   1.0000
  36.500   1.2147   0.40210   0.40172  -0.2211   0.0006   1.0000
  36.750   1.2183   0.40381   0.40343  -0.2236   0.0006   1.0000
  37.000   1.2219   0.40549   0.40511  -0.2260   0.0006   1.0000
  37.250   1.2254   0.40712   0.40674  -0.2285   0.0006   1.0000
  37.500   1.2288   0.40872   0.40834  -0.2309   0.0005   1.0000
  37.750   1.2321   0.41029   0.40992  -0.2334   0.0005   1.0000
  38.000   1.2353   0.41186   0.41148  -0.2358   0.0005   1.0000
  38.250   1.2383   0.41339   0.41302  -0.2383   0.0005   1.0000
  38.500   1.2413   0.41490   0.41453  -0.2408   0.0005   1.0000
  38.750   1.2442   0.41638   0.41601  -0.2432   0.0005   1.0000
  39.000   1.2470   0.41783   0.41746  -0.2457   0.0005   1.0000
  39.250   1.2497   0.41925   0.41888  -0.2482   0.0004   1.0000
  39.500   1.2523   0.42065   0.42029  -0.2507   0.0004   1.0000
  39.750   1.2548   0.42204   0.42167  -0.2532   0.0004   1.0000
