  
       XFOIL         Version 6.99
  
 Calculated polar for: P-51D ROOT (BL17.5) AIRFOIL                     
  
 1 1 Reynolds number fixed          Mach number fixed         
  
 xtrf =   1.000 (top)        1.000 (bottom)  
 Mach =   0.000     Re =    18.164 e 6     Ncrit =   9.000
  
   alpha    CL        CD       CDp       CM     Top_Xtr  Bot_Xtr
  ------ -------- --------- --------- -------- -------- --------
   0.000   0.1787   0.00438   0.00068  -0.0404   0.4300   0.3599
